input.mol
  ChemDraw09061711522D

  0  0  0     0  0              0 V3000
M  V30 BEGIN CTAB
M  V30 COUNTS 7 7 0 0 0
M  V30 BEGIN ATOM
M  V30 1 C -0.825000 -0.714471 0.000000 0
M  V30 2 C -0.000000 -0.714471 0.000000 0
M  V30 3 C 0.412500 0.000000 0.000000 0
M  V30 4 C -0.000000 0.714471 0.000000 0
M  V30 5 C -0.825000 0.714471 0.000000 0
M  V30 6 C -1.237500 0.000000 0.000000 0
M  V30 7 A 1.237500 0.000000 0.000000 0
M  V30 END ATOM
M  V30 BEGIN BOND
M  V30 1 4 1 2
M  V30 2 4 2 3
M  V30 3 4 3 4
M  V30 4 4 4 5
M  V30 5 4 5 6
M  V30 6 4 6 1
M  V30 7 1 3 7
M  V30 END BOND
M  V30 END CTAB
M  END
